Circuit: * D:\LucasLiaño\Escritorio\Boostrap\Bootstrap v1\Bootstrap.asc

Direct Newton iteration for .op point succeeded.

Date: Thu Nov 26 15:06:14 2020
Total elapsed time: 0.023 seconds.

tnom = 27
temp = 27
method = trap
totiter = 7
traniter = 0
tranpoints = 0
accept = 0
rejected = 0
matrix size = 11
fillins = 2
solver = Normal
Matrix Compiler1:      36 opcodes
Matrix Compiler2: 847 bytes object code size
